*Heading
** Job name: Job-DISPTEST Model name: Model-1
*Preprint, echo=NO, model=NO, history=NO, contact=NO
**
** PARTS
**
*Part, name=Part-1
*Node
      1,           0.,         -20.,           0.
      2,           0.,           0.,           0.
      3,         -20.,           0.,           0.
      4,           0.,          20.,           0.
      5,          20.,           0.,           0.
      6,  -19.9743309,  -1.01298332,           0.
      7,  -19.8973866,  -2.02336645,           0.
      8,  -19.7693672,  -3.02855563,           0.
      9,  -19.5905991,  -4.02597046,           0.
     10,  -19.3615417,  -5.01305056,           0.
     11,  -19.0827847,  -5.98726225,           0.
     12,   -18.755043,    -6.946105,           0.
     13,  -18.3791561,  -7.88711691,           0.
     14,  -17.9560909,  -8.80788326,           0.
     15,  -17.4869328,  -9.70603943,           0.
     16,  -16.9728851,  -10.5792799,           0.
     17,  -16.4152679,  -11.4253645,           0.
     18,  -15.8155146,  -12.2421198,           0.
     19,  -15.1751623,  -13.0274496,           0.
     20,  -14.4958553,  -13.7793388,           0.
** ... 1499 like lines cut
*Element, type=S4R
  1,  20,  21, 233, 218
  2,  21,  22, 234, 233
  3,  22,  23, 235, 234
  4,  23,  24, 236, 235
  5,  24,  25, 237, 236
  6,  25,  26, 238, 237
  7,  26,  27, 239, 238
  8,  27,  28, 240, 239
  9,  28,  29, 241, 240
 10,  29,  30, 242, 241
 11,  30,  31, 243, 242
 12,  31,  32, 244, 243
 13,  32,  33, 245, 244
 14,  33,  34, 246, 245
 15,  34,  35, 247, 246
 16,  35,   1,  36, 247
 17, 218, 233, 248, 217
 18, 233, 234, 249, 248
 19, 234, 235, 250, 249
 20, 235, 236, 251, 250
** ... 1436 like lines cut
*Nset, nset=Set-1, generate
    1,  1519,     1
*Elset, elset=Set-1, generate
    1,  1456,     1
** Section: Section-1
*Shell Section, elset=Set-1, material=Material-1
1., 5
*End Part
**  
**
** ASSEMBLY
**
*Assembly, name=Assembly
**  
*Instance, name=Part-1-1, part=Part-1
*End Instance
**  
*Nset, nset=Set-1, instance=Part-1-1
 2,
*Nset, nset=Set-2, instance=Part-1-1, generate
    1,  1519,     1
*Elset, elset=Set-2, instance=Part-1-1, generate
    1,  1456,     1
*Nset, nset=Set-3, instance=Part-1-1
   1,   3,   4,   5,   6,   7,   8,   9,  10,  11,  12,  13,  14,  15,  16,  17
  18,  19,  20,  21,  22,  23,  24,  25,  26,  27,  28,  29,  30,  31,  32,  33
  34,  35,  91,  92,  93,  94,  95,  96,  97,  98,  99, 100, 101, 102, 103, 104
 105, 106, 107, 108, 109, 110, 111, 112, 113, 114, 115, 116, 117, 118, 119, 120
 121, 122, 123, 124, 125, 126, 127, 128, 129, 130, 131, 132, 133, 134, 135, 136
 137, 138, 139, 140, 141, 142, 143, 144, 145, 146, 147, 148, 149, 150, 170, 171
 172, 173, 174, 175, 176, 177, 178, 179, 180, 181, 182, 183, 184, 185, 186, 187
 188, 189, 190, 191, 192, 193, 194, 195, 196, 197, 198, 199
*Elset, elset=Set-3, instance=Part-1-1
    1,    2,    3,    4,    5,    6,    7,    8,    9,   10,   11,   12,   13,   14,   15,   16
  308,  312,  316,  320,  324,  328,  332,  336,  340,  344,  348,  352,  356,  360,  364,  608
  612,  616,  620,  624,  628,  632,  636,  640,  644,  648,  652,  656,  660,  664,  668,  669
  670,  671,  672,  673,  674,  675,  676,  677,  678,  679,  680,  681,  682,  683,  729,  730
  731,  732,  733,  734,  735,  736,  737,  738,  739,  740,  741,  742,  743,  744, 1036, 1040
 1044, 1048, 1052, 1056, 1060, 1064, 1068, 1072, 1076, 1080, 1084, 1088, 1092, 1336, 1340, 1344
 1348, 1352, 1356, 1360, 1364, 1368, 1372, 1376, 1380, 1384, 1388, 1392, 1396, 1397, 1398, 1399
 1400, 1401, 1402, 1403, 1404, 1405, 1406, 1407, 1408, 1409, 1410, 1411
*End Assembly
** 
** MATERIALS
** 
*Material, name=Material-1
*Elastic
1., 0.25
** 
** BOUNDARY CONDITIONS
** 
** Name: BC-1 Type: Symmetry/Antisymmetry/Encastre
*Boundary
Set-1, ENCASTRE
** Name: BC-2 Type: Displacement/Rotation
*Boundary
Set-2, 3, 3
** ----------------------------------------------------------------
** 
** STEP: Step-1
** 
*Step, name=Step-1, nlgeom=NO
*Static
0.1, 1., 1e-05, 0.1
** 
** BOUNDARY CONDITIONS
** 
** Name: BC-3 Type: Displacement/Rotation
*Boundary, user
Set-3, 1, 1, 1.
Set-3, 2, 2, 1.
** 
** OUTPUT REQUESTS
** 
*Restart, write, frequency=0
** 
** FIELD OUTPUT: F-Output-1
** 
*Output, field, variable=PRESELECT
** 
** HISTORY OUTPUT: H-Output-1
** 
*Output, history, variable=PRESELECT
*End Step
